-------------------------------------------------------
          Amber 14 SANDER                              2014
          -------------------------------------------------------

  [-O]verwriting output

File Assignments:

 Here is the input file:

Stage 3 production run of ALA12 at 300K
&cntrl
imin=0,irest=1,ntx=5,nstlim=500000,dt=0.002,ntc=2,ntf=2,ntt=3,gamma_ln=1.0,ig=-1,tempi=300.0,temp0=300.0,ntpr=500,ntwx=500,ntb=0,igb=1,cut=999.,rgbmax=999.,ioutfm=1
/

--------------------------------------------------------------------------------
   1.  RESOURCE   USE:
--------------------------------------------------------------------------------

 NATOM  =     123 NTYPES =       8 NBONH =      62 MBONA  =      60
 NTHETH =     136 MTHETA =      83 NPHIH =     249 MPHIA  =     233
 NHPARM =       0 NPARM  =       0 NNB   =     641 NRES   =      12
 NBONA  =      60 NTHETA =      83 NPHIA =     233 NUMBND =      12
 NUMANG =      23 NPTRA  =      20 NATYP =      11 NPHB   =       0
 IFBOX  =       0 NMXRS  =      12 IFCAP =       0 NEXTRA =       0
 NCOPY  =       0

 Implicit solvent radii are modified Bondi radii (mbondi)

Note: ig = -1. Setting random seed to   371811 based on wallclock time in microseconds
      and disabling the synchronization of random numbers between tasks
      to improve performance.

--------------------------------------------------------------------------------
   2.  CONTROL  DATA  FOR  THE  RUN
--------------------------------------------------------------------------------

NALA

General flags:
     imin    =       0, nmropt  =       0

Nature and format of input:
     ntx     =       5, irest   =       1, ntrx    =       1

Nature and format of output:
     ntxo    =       1, ntpr    =     500, ntrx    =       1, ntwr    =     500
     iwrap   =       0, ntwx    =     500, ntwv    =       0, ntwe    =       0
     ioutfm  =       1, ntwprt  =       0, idecomp =       0, rbornstat=      0

Potential function:
     ntf     =       2, ntb     =       0, igb     =       1, nsnb    =      25
     ipol    =       0, gbsa    =       0, iesp    =       0
     dielc   =   1.00000, cut     = 999.00000, intdiel =   1.00000
     saltcon =   0.00000, offset  =   0.09000, gbalpha=    1.00000
     gbbeta  =   0.00000, gbgamma =   0.00000, surften =   0.00500
     rdt     =   0.00000, rgbmax  = 999.00000  extdiel =  78.50000
     alpb  =        0

Frozen or restrained atoms:
     ibelly  =       0, ntr     =       0

Molecular dynamics:
     nstlim  =    500000, nscm    =      1000, nrespa  =         1
     t       =   0.00000, dt      =   0.00200, vlimit  =  20.00000

Langevin dynamics temperature regulation:
     ig      =  371811
     temp0   = 300.00000, tempi   = 300.00000, gamma_ln=   1.00000

SHAKE:
     ntc     =       2, jfastw  =       0
     tol     =   0.00001

--------------------------------------------------------------------------------
   3.  ATOMIC COORDINATES AND VELOCITIES
--------------------------------------------------------------------------------

NALA
 begin time read from input coords =  2100.000 ps

 Number of triangulated 3-point waters found:        0

--------------------------------------------------------------------------------
   4.  RESULTS
 NSTEP =      500   TIME(PS) =    2101.000  TEMP(K) =   268.38  PRESS =     0.0
 Etot   =        28.1820  EKtot   =        81.8637  EPtot      =       -53.6817
 BOND   =        24.3356  ANGLE   =        57.1314  DIHED      =        87.2329
 1-4 NB =        23.3802  1-4 EEL =       853.9569  VDWAALS    =       -32.2998
 EELEC  =      -865.0359  EGB     =      -202.3831  RESTRAINT  =         0.0000
 ------------------------------------------------------------------------------

      A V E R A G E S   O V E R  500000 S T E P S

 NSTEP =   500000   TIME(PS) =    3100.000  TEMP(K) =   300.28  PRESS =     0.0
 Etot   =        40.4672  EKtot   =        91.5959  EPtot      =       -51.1287
 BOND   =        23.8191  ANGLE   =        57.8732  DIHED      =        92.1422
 1-4 NB =        25.1238  1-4 EEL =       858.7941  VDWAALS    =       -34.0848
 EELEC  =      -855.0440  EGB     =      -219.7524  RESTRAINT  =         0.0000
 ------------------------------------------------------------------------------

      R M S  F L U C T U A T I O N S

 NSTEP =   500000   TIME(PS) =    3100.000  TEMP(K) =    24.19  PRESS =     0.0
 Etot   =        10.8324  EKtot   =         7.3772  EPtot      =         8.1093
 BOND   =         4.1857  ANGLE   =         6.0590  DIHED      =         3.7459
 1-4 NB =         2.3077  1-4 EEL =         6.2355  VDWAALS    =         3.5111
 EELEC  =        10.2144  EGB     =         8.4179  RESTRAINT  =         0.0000
 ------------------------------------------------------------------------------
