-------------------------------------------------------
          Amber 14 SANDER                              2014
          -------------------------------------------------------

  [-O]verwriting output

File Assignments:

 Here is the input file:

Stage 2 heating of ALA12 0 to 300K
&cntrl
imin=0,irest=0,ntx=1,nstlim=20000,dt=0.001,ntc=1,ntf=1,ntt=3,gamma_ln=1.0,ig=-1,tempi=0.0,temp0=300.0,ntpr=100,ntwx=100,ntb=0,igb=1,cut=999.,rgbmax=999.,ioutfm=1
/

--------------------------------------------------------------------------------
   1.  RESOURCE   USE:
--------------------------------------------------------------------------------

 NATOM  =     123 NTYPES =       8 NBONH =      62 MBONA  =      60
 NTHETH =     136 MTHETA =      83 NPHIH =     249 MPHIA  =     233
 NHPARM =       0 NPARM  =       0 NNB   =     641 NRES   =      12
 NBONA  =      60 NTHETA =      83 NPHIA =     233 NUMBND =      12
 NUMANG =      23 NPTRA  =      20 NATYP =      11 NPHB   =       0
 IFBOX  =       0 NMXRS  =      12 IFCAP =       0 NEXTRA =       0
 NCOPY  =       0

 Implicit solvent radii are modified Bondi radii (mbondi)

Note: ig = -1. Setting random seed to    47574 based on wallclock time in microseconds
      and disabling the synchronization of random numbers between tasks
      to improve performance.

--------------------------------------------------------------------------------
   2.  CONTROL  DATA  FOR  THE  RUN
--------------------------------------------------------------------------------

NALA

General flags:
     imin    =       0, nmropt  =       0

Nature and format of input:
     ntx     =       1, irest   =       0, ntrx    =       1

Nature and format of output:
     ntxo    =       1, ntpr    =     100, ntrx    =       1, ntwr    =     500
     iwrap   =       0, ntwx    =     100, ntwv    =       0, ntwe    =       0
     ioutfm  =       1, ntwprt  =       0, idecomp =       0, rbornstat=      0

Potential function:
     ntf     =       1, ntb     =       0, igb     =       1, nsnb    =      25
     ipol    =       0, gbsa    =       0, iesp    =       0
     dielc   =   1.00000, cut     = 999.00000, intdiel =   1.00000
     saltcon =   0.00000, offset  =   0.09000, gbalpha=    1.00000
     gbbeta  =   0.00000, gbgamma =   0.00000, surften =   0.00500
     rdt     =   0.00000, rgbmax  = 999.00000  extdiel =  78.50000
     alpb  =        0

Frozen or restrained atoms:
     ibelly  =       0, ntr     =       0

Molecular dynamics:
     nstlim  =     20000, nscm    =      1000, nrespa  =         1
     t       =   0.00000, dt      =   0.00100, vlimit  =  20.00000

Langevin dynamics temperature regulation:
     ig      =   47574
     temp0   = 300.00000, tempi   =   0.00000, gamma_ln=   1.00000

--------------------------------------------------------------------------------
   3.  ATOMIC COORDINATES AND VELOCITIES
--------------------------------------------------------------------------------

NALA
 begin time read from input coords =     0.000 ps

 Number of triangulated 3-point waters found:        0

--------------------------------------------------------------------------------
   4.  RESULTS
 NSTEP =        0   TIME(PS) =       0.000  TEMP(K) =     0.00  PRESS =     0.0
 Etot   =      -125.9022  EKtot   =         0.0000  EPtot      =      -125.9022
 BOND   =         4.1461  ANGLE   =         5.9143  DIHED      =        68.2366
 1-4 NB =        18.8094  1-4 EEL =       862.4692  VDWAALS    =       -16.8956
 EELEC  =      -876.1759  EGB     =      -192.4062  RESTRAINT  =         0.0000
 ------------------------------------------------------------------------------

      A V E R A G E S   O V E R   20000 S T E P S

 NSTEP =    20000   TIME(PS) =      20.000  TEMP(K) =   283.54  PRESS =     0.0
 Etot   =        79.3269  EKtot   =       103.9564  EPtot      =       -24.6295
 BOND   =        40.5156  ANGLE   =        52.5773  DIHED      =        87.3080
 1-4 NB =        22.2337  1-4 EEL =       865.2722  VDWAALS    =       -18.0306
 EELEC  =      -868.2304  EGB     =      -206.2754  RESTRAINT  =         0.0000
 ------------------------------------------------------------------------------

      R M S  F L U C T U A T I O N S

 NSTEP =    20000   TIME(PS) =      20.000  TEMP(K) =    51.02  PRESS =     0.0
 Etot   =        35.3045  EKtot   =        18.7042  EPtot      =        18.3771
 BOND   =         7.7099  ANGLE   =         9.6060  DIHED      =         4.9217
 1-4 NB =         2.2343  1-4 EEL =         6.8701  VDWAALS    =         1.5436
 EELEC  =         8.1087  EGB     =         6.7131  RESTRAINT  =         0.0000
 ------------------------------------------------------------------------------
