-------------------------------------------------------
          Amber 14 SANDER                              2014
          -------------------------------------------------------

  [-O]verwriting output

File Assignments:

 Here is the input file:

Stage 3 production run of ALA12 at 300K
&cntrl
imin=0,irest=1,ntx=5,nstlim=500000,dt=0.002,ntc=2,ntf=2,ntt=3,gamma_ln=1.0,ig=-1,tempi=300.0,temp0=300.0,ntpr=500,ntwx=500,ntb=0,igb=1,cut=999.,rgbmax=999.,ioutfm=1
/

--------------------------------------------------------------------------------
   1.  RESOURCE   USE:
--------------------------------------------------------------------------------

 NATOM  =     123 NTYPES =       8 NBONH =      62 MBONA  =      60
 NTHETH =     136 MTHETA =      83 NPHIH =     249 MPHIA  =     233
 NHPARM =       0 NPARM  =       0 NNB   =     641 NRES   =      12
 NBONA  =      60 NTHETA =      83 NPHIA =     233 NUMBND =      12
 NUMANG =      23 NPTRA  =      20 NATYP =      11 NPHB   =       0
 IFBOX  =       0 NMXRS  =      12 IFCAP =       0 NEXTRA =       0
 NCOPY  =       0

 Implicit solvent radii are modified Bondi radii (mbondi)

Note: ig = -1. Setting random seed to   702575 based on wallclock time in microseconds
      and disabling the synchronization of random numbers between tasks
      to improve performance.

--------------------------------------------------------------------------------
   2.  CONTROL  DATA  FOR  THE  RUN
--------------------------------------------------------------------------------

NALA

General flags:
     imin    =       0, nmropt  =       0

Nature and format of input:
     ntx     =       5, irest   =       1, ntrx    =       1

Nature and format of output:
     ntxo    =       1, ntpr    =     500, ntrx    =       1, ntwr    =     500
     iwrap   =       0, ntwx    =     500, ntwv    =       0, ntwe    =       0
     ioutfm  =       1, ntwprt  =       0, idecomp =       0, rbornstat=      0

Potential function:
     ntf     =       2, ntb     =       0, igb     =       1, nsnb    =      25
     ipol    =       0, gbsa    =       0, iesp    =       0
     dielc   =   1.00000, cut     = 999.00000, intdiel =   1.00000
     saltcon =   0.00000, offset  =   0.09000, gbalpha=    1.00000
     gbbeta  =   0.00000, gbgamma =   0.00000, surften =   0.00500
     rdt     =   0.00000, rgbmax  = 999.00000  extdiel =  78.50000
     alpb  =        0

Frozen or restrained atoms:
     ibelly  =       0, ntr     =       0

Molecular dynamics:
     nstlim  =    500000, nscm    =      1000, nrespa  =         1
     t       =   0.00000, dt      =   0.00200, vlimit  =  20.00000

Langevin dynamics temperature regulation:
     ig      =  702575
     temp0   = 300.00000, tempi   = 300.00000, gamma_ln=   1.00000

SHAKE:
     ntc     =       2, jfastw  =       0
     tol     =   0.00001

--------------------------------------------------------------------------------
   3.  ATOMIC COORDINATES AND VELOCITIES
--------------------------------------------------------------------------------

NALA
 begin time read from input coords =  1020.000 ps

 Number of triangulated 3-point waters found:        0

--------------------------------------------------------------------------------
   4.  RESULTS
 NSTEP =      500   TIME(PS) =    1021.000  TEMP(K) =   303.26  PRESS =     0.0
 Etot   =        41.1936  EKtot   =        92.5061  EPtot      =       -51.3125
 BOND   =        22.6113  ANGLE   =        57.0308  DIHED      =        90.9493
 1-4 NB =        24.1926  1-4 EEL =       854.7447  VDWAALS    =       -27.6708
 EELEC  =      -954.7055  EGB     =      -118.4649  RESTRAINT  =         0.0000
 ------------------------------------------------------------------------------

      A V E R A G E S   O V E R  500000 S T E P S

 NSTEP =   500000   TIME(PS) =    2020.000  TEMP(K) =   300.12  PRESS =     0.0
 Etot   =        43.4101  EKtot   =        91.5456  EPtot      =       -48.1356
 BOND   =        23.9434  ANGLE   =        58.2043  DIHED      =        90.1311
 1-4 NB =        24.4483  1-4 EEL =       860.3211  VDWAALS    =       -30.7764
 EELEC  =      -887.1584  EGB     =      -187.2489  RESTRAINT  =         0.0000
 ------------------------------------------------------------------------------

      R M S  F L U C T U A T I O N S

 NSTEP =   500000   TIME(PS) =    2020.000  TEMP(K) =    24.00  PRESS =     0.0
 Etot   =        10.7460  EKtot   =         7.3217  EPtot      =         8.0166
 BOND   =         4.1934  ANGLE   =         6.1330  DIHED      =         3.8917
 1-4 NB =         2.2787  1-4 EEL =         6.5377  VDWAALS    =         3.2893
 EELEC  =        42.8541  EGB     =        41.9961  RESTRAINT  =         0.0000
 ------------------------------------------------------------------------------
